Circuit: * C:\Users\DELL\Desktop\LTSPICENETLIST\GPIO_BIDIBUFF_TANVI.asc

WARNING: Node N009 is floating.
WARNING: Node N010 is floating.
WARNING: Node N011 is floating.
WARNING: Node N014 is floating.
WARNING: Node N015 is floating.
WARNING: Node N013 is floating.
WARNING: Node N004 is floating.
WARNING: Node N005 is floating.
WARNING: Node N007 is floating.
WARNING: Node N008 is floating.
WARNING: Node N002 is floating.

Direct Newton iteration for .op point succeeded.

Date: Tue Jun 16 23:35:43 2020
Total elapsed time: 0.178 seconds.

tnom = 27
temp = 27
method = modified trap
totiter = 5238
traniter = 5191
tranpoints = 1747
accept = 1583
rejected = 164
matrix size = 24
fillins = 0
solver = Normal
Matrix Compiler1: 1.31 KB object code size  0.6/0.3/[0.1]
Matrix Compiler2: off  [0.3]/0.6/0.4

