Circuit: * C:\Users\DELL\Desktop\NETLIST-.cir\Gpio@bidibuff.asc

WARNING: Node N007 is floating.
WARNING: Node N008 is floating.
WARNING: Node N009 is floating.
WARNING: Node N012 is floating.
WARNING: Node N013 is floating.
WARNING: Node N011 is floating.
WARNING: Node N002 is floating.
WARNING: Node N003 is floating.
WARNING: Node N005 is floating.
WARNING: Node N006 is floating.
WARNING: Node N001 is floating.

Direct Newton iteration for .op point succeeded.

Date: Sun Jun 21 20:41:51 2020
Total elapsed time: 1.640 seconds.

tnom = 27
temp = 27
method = modified trap
totiter = 38647
traniter = 38600
tranpoints = 10400
accept = 8261
rejected = 2139
matrix size = 24
fillins = 0
solver = Normal
Matrix Compiler1: 1.31 KB object code size  0.9/0.6/[0.2]
Matrix Compiler2: 2.33 KB object code size  0.6/1.2/[0.5]

