Circuit: * C:\Users\DELL\Desktop\NETLIST-.cir\Gpio-Bidibuff.asc

WARNING: Node N007 is floating.
WARNING: Node N008 is floating.
WARNING: Node N009 is floating.
WARNING: Node N012 is floating.
WARNING: Node N013 is floating.
WARNING: Node N011 is floating.
WARNING: Node N002 is floating.
WARNING: Node N003 is floating.
WARNING: Node N005 is floating.
WARNING: Node N006 is floating.
WARNING: Node N001 is floating.

Instance "m11": Length shorter than recommended for a level 1 MOSFET.
Instance "m11": Width narrower than recommended for a level 1 MOSFET.
Instance "m10": Length shorter than recommended for a level 1 MOSFET.
Instance "m10": Width narrower than recommended for a level 1 MOSFET.
Instance "m9": Width narrower than recommended for a level 1 MOSFET.
Instance "m8": Length shorter than recommended for a level 1 MOSFET.
Instance "m8": Width narrower than recommended for a level 1 MOSFET.
Instance "m7": Length shorter than recommended for a level 1 MOSFET.
Instance "m7": Width narrower than recommended for a level 1 MOSFET.
Instance "m4": Length shorter than recommended for a level 1 MOSFET.
Instance "m4": Width narrower than recommended for a level 1 MOSFET.
Instance "m6": Length shorter than recommended for a level 1 MOSFET.
Instance "m6": Width narrower than recommended for a level 1 MOSFET.
Instance "m5": Length shorter than recommended for a level 1 MOSFET.
Instance "m5": Width narrower than recommended for a level 1 MOSFET.
Instance "m12": Length shorter than recommended for a level 1 MOSFET.
Instance "m12": Width narrower than recommended for a level 1 MOSFET.
Instance "m3": Length shorter than recommended for a level 1 MOSFET.
Instance "m3": Width narrower than recommended for a level 1 MOSFET.
Instance "m2": Length shorter than recommended for a level 1 MOSFET.
Instance "m2": Width narrower than recommended for a level 1 MOSFET.
Instance "m1": Length shorter than recommended for a level 1 MOSFET.
Instance "m1": Width narrower than recommended for a level 1 MOSFET.
Direct Newton iteration for .op point succeeded.

Date: Tue Jun 23 11:35:49 2020
Total elapsed time: 0.376 seconds.

tnom = 27
temp = 27
method = modified trap
totiter = 3874
traniter = 3827
tranpoints = 1475
accept = 1375
rejected = 100
matrix size = 24
fillins = 0
solver = Normal
Matrix Compiler1: 1.31 KB object code size  0.8/0.4/[0.4]
Matrix Compiler2: 2.33 KB object code size  0.6/0.9/[0.5]

