Circuit: * C:\Users\DELL\Desktop\LTSPICENETLIST\Gpio@bidibuff.asc

WARNING: Node N007 is floating.
WARNING: Node N008 is floating.
WARNING: Node N009 is floating.
WARNING: Node N012 is floating.
WARNING: Node N013 is floating.
WARNING: Node N011 is floating.
WARNING: Node N002 is floating.
WARNING: Node N003 is floating.
WARNING: Node N005 is floating.
WARNING: Node N006 is floating.
WARNING: Node N001 is floating.

Direct Newton iteration for .op point succeeded.

Date: Sat Jun 20 20:11:31 2020
Total elapsed time: 0.453 seconds.

tnom = 27
temp = 27
method = modified trap
totiter = 4792
traniter = 4745
tranpoints = 1175
accept = 908
rejected = 267
matrix size = 24
fillins = 0
solver = Normal
Matrix Compiler1: 1.31 KB object code size  1.5/1.1/[0.3]
Matrix Compiler2: 2.33 KB object code size  1.0/1.8/[0.8]

