Circuit: * E:\DETC(AE)\spice\bidibuff\bidibuffer.cir

